/*--------------------------------*- C++ -*----------------------------------*\
| =========                 |                                                 |
| \\      /  F ield         | OpenFOAM: The Open Source CFD Toolbox           |
|  \\    /   O peration     | Version:  v2312                                 |
|   \\  /    A nd           | Website:  www.openfoam.com                      |
|    \\/     M anipulation  |                                                 |
\*---------------------------------------------------------------------------*/
FoamFile
{
    version     2.0;
    format      ascii;
    class       dictionary;
    object      fvSolution;
}
// * * * * * * * * * * * * * * * * * * * * * * * * * * * * * * * * * * * * * //

SIMPLE
{
    nNonOrthogonalCorrectors 0;
}

solvers
{

    "p.*|pa.*"
    {
        solver GAMG;
        smoother GaussSeidel;
        tolerance 1e-7;
        relTol 0.01;
    }
    // {
    //     solver           PCG;
    //     preconditioner   DIC;
    //     tolerance        1e-15;
    //     relTol           0.01;
    // };    

    Phi
    {
        $p;
    }

    "m|ma"
    {
        solver           PCG;
        preconditioner   DIC;
        tolerance        1e-9;
        relTol           0.01;
    };

    "U.*|Ua.*|yWall|da|k|ka|omega|wa"
    {
        solver          smoothSolver;
        smoother        symGaussSeidel;
        nSweeps         1;
        tolerance       1e-7;
        relTol          0.1;
        minIter         1;
    };

    // {
    //     solver           PBiCGStab;
    //     preconditioner   DILU;
    //     tolerance        1e-15;
    //     relTol           0.1;
    // }
}

SIMPLE
{
    nNonOrthogonalCorrectors 0;
    // consistent yes;
}

potentialFlow
{
    nNonOrthogonalCorrectors 10;
}

relaxationFactors
{
    fields
    {
        "p.*"        0.3;
        "pa.*"       0.3;
    }
    equations
    {
        "U.*"        0.7;
        "Ua.*"       0.7;
        "k.*"        0.7;
        "ka.*"       0.7;
        "omega.*"    0.7;
        "wa.*"       0.7;
        "yWall.*"    0.5;
        "da.*"       0.7;
    }
}

cache
{
    grad(U);
}


// ************************************************************************* //
