/*--------------------------------*- C++ -*----------------------------------*\
| =========                 |                                                 |
| \\      /  F ield         | OpenFOAM: The Open Source CFD Toolbox           |
|  \\    /   O peration     | Version:  v2312                                 |
|   \\  /    A nd           | Website:  www.openfoam.com                      |
|    \\/     M anipulation  |                                                 |
\*---------------------------------------------------------------------------*/
FoamFile
{
    version     2.0;
    format      ascii;
    class       dictionary;
    object      optimisationDict;
}
// * * * * * * * * * * * * * * * * * * * * * * * * * * * * * * * * * * * * * //

optimisationManager steadyOptimisation;

primalSolvers
{
    op1
    {
        active                 true;
        type                   incompressible;
        solver                 simple;

        solutionControls
        {
            consistent yes;
            nIters 1000;
            residualControl
            {
                "p.*"       1.e-5;
                "U.*"       1.e-5;
                "k.*"       5.e-6;
                "omega.*"   5.e-6;
            }
            averaging
            {
                average     true;
                startIter   50;
            }
        }
    }
}

adjointManagers
{
    adjManager1
    {
        primalSolver             op1;
        adjointSolvers
        {

            adjS1
            {
                // choose adjoint solver
                //----------------------
                active                 true;
                type                   incompressible;
                solver                 adjointSimple;
                computeSensitivities   true;

                // manage objectives
                //------------------
                objectives
                {
                    type incompressible;
                    objectiveNames
                    {
                        drag
                        {
                            weight     1.;
                            type       force;
                            patches    (hull);
                            direction  (-1 0 0);
                            rhoInf     998.8;
                            Aref       6.221;
                            UInf       1.668;
                        }
                    }
                }
                // ATC treatment
                //--------------
                ATCModel
                {
                    // ATCModel          cancel;
                    ATCModel          standard;
                    extraConvection   0;
                    nSmooth           1;
                    zeroATCPatchTypes (wall patch);
                    maskType          pointCells;
                }
                // solution control
                //------------------
                solutionControls
                {
                    consistent yes;
                    nIters 1000;
                    residualControl
                    {
                        "pa.*"       1.e-8;
                        "Ua.*"       1.e-8;
                        "ka.*"       1.e-8;
                        "wa.*"       1.e-8;
                    }
                }
            }
        }
    }
}


optimisation
{
    designVariables
    {
        type            shape;
        shapeType       volumetricBSplines;
        sensitivityType shapeFI;
        patches         (hull);
        maxInitChange   0.05;
    }
    updateMethod
    {
        method conjugateGradient;
        lineSearch
        {
            type    ArmijoConditions;
        }
        //eta 1; //optional
    }
    // updateMethod
    // {
    //     method BFGS;
    // }
}


// ************************************************************************* //
